Circuit: * C:\Users\User\Desktop\UniPD\Università\III anno\Laboratorio di Fisica\laboratorio\terza esperienza\github\1.asc

Direct Newton iteration for .op point succeeded.

Date: Wed Dec 04 18:11:46 2019
Total elapsed time: 0.106 seconds.

tnom = 27
temp = 27
method = modified trap
totiter = 2222
traniter = 2218
tranpoints = 1110
accept = 1100
rejected = 10
matrix size = 10
fillins = 5
solver = Normal
Matrix Compiler1: 914 bytes object code size  0.4/0.2/[0.1]
Matrix Compiler2: 866 bytes object code size  0.2/0.2/[0.2]

