Circuit: * C:\Users\User\Desktop\UniPD\Università\III anno\Laboratorio di Fisica\laboratorio\terza esperienza\github\3.asc

Direct Newton iteration for .op point succeeded.

Date: Thu Dec 05 00:26:10 2019
Total elapsed time: 0.064 seconds.

tnom = 27
temp = 27
method = modified trap
totiter = 2242
traniter = 2238
tranpoints = 1120
accept = 1106
rejected = 14
matrix size = 18
fillins = 4
solver = Normal
Matrix Compiler1: 1.23 KB object code size  0.2/0.1/[0.1]
Matrix Compiler2: 1.48 KB object code size  0.1/0.1/[0.1]

